data_CeO2\(1\1\1)_44_vO\(2)
_audit_creation_date              2025-04-28
_audit_creation_method            'Materials Studio'
_symmetry_space_group_name_H-M    'P1'
_symmetry_Int_Tables_number       1
_symmetry_cell_setting            triclinic
loop_
_symmetry_equiv_pos_as_xyz
  x,y,z
_cell_length_a                    15.4643
_cell_length_b                    15.4643
_cell_length_c                    21.0482
_cell_angle_alpha                 90.0000
_cell_angle_beta                  90.0000
_cell_angle_gamma                 120.0000
loop_
_atom_site_label
_atom_site_type_symbol
_atom_site_fract_x
_atom_site_fract_y
_atom_site_fract_z
_atom_site_U_iso_or_equiv
_atom_site_adp_type
_atom_site_occupancy
Ce1    Ce   -0.00000  -0.00000   0.45993   0.00000  Uiso   1.00
Ce2    Ce    0.16667   0.08333   0.30996   0.00000  Uiso   1.00
O3     O     0.00000  -0.00000   0.57241   0.00000  Uiso   1.00
O4     O     0.08333   0.16667   0.27247   0.00000  Uiso   1.00
O5     O     0.16667   0.08333   0.42244   0.00000  Uiso   1.00
O6     O     0.08333   0.16667   0.49742   0.00000  Uiso   1.00
O7     O    -0.00000  -0.00000   0.34745   0.00000  Uiso   1.00
O8     O     0.16667   0.08333   0.19748   0.00000  Uiso   1.00
Ce9    Ce    0.25000  -0.00000   0.45993   0.00000  Uiso   1.00
Ce10   Ce    0.41667   0.08333   0.30996   0.00000  Uiso   1.00
O11    O     0.25000  -0.00000   0.57241   0.00000  Uiso   1.00
O12    O     0.33333   0.16667   0.27247   0.00000  Uiso   1.00
O13    O     0.41667   0.08333   0.42244   0.00000  Uiso   1.00
O14    O     0.33333   0.16667   0.49742   0.00000  Uiso   1.00
O15    O     0.25000  -0.00000   0.34745   0.00000  Uiso   1.00
O16    O     0.41667   0.08333   0.19748   0.00000  Uiso   1.00
Ce17   Ce    0.50000  -0.00000   0.45993   0.00000  Uiso   1.00
Ce18   Ce    0.66667   0.08333   0.30996   0.00000  Uiso   1.00
O19    O     0.50000  -0.00000   0.57241   0.00000  Uiso   1.00
O20    O     0.58333   0.16667   0.27247   0.00000  Uiso   1.00
O21    O     0.66667   0.08333   0.42244   0.00000  Uiso   1.00
O22    O     0.58333   0.16667   0.49742   0.00000  Uiso   1.00
O23    O     0.50000  -0.00000   0.34745   0.00000  Uiso   1.00
O24    O     0.66667   0.08333   0.19748   0.00000  Uiso   1.00
Ce25   Ce    0.75000  -0.00000   0.45993   0.00000  Uiso   1.00
Ce26   Ce    0.91667   0.08333   0.30996   0.00000  Uiso   1.00
O27    O     0.75000  -0.00000   0.57241   0.00000  Uiso   1.00
O28    O     0.83333   0.16667   0.27247   0.00000  Uiso   1.00
O29    O     0.91667   0.08333   0.42244   0.00000  Uiso   1.00
O30    O     0.83333   0.16667   0.49742   0.00000  Uiso   1.00
O31    O     0.75000  -0.00000   0.34745   0.00000  Uiso   1.00
O32    O     0.91667   0.08333   0.19748   0.00000  Uiso   1.00
Ce33   Ce   -0.00000   0.25000   0.45993   0.00000  Uiso   1.00
Ce34   Ce    0.16667   0.33333   0.30996   0.00000  Uiso   1.00
O35    O     0.00000   0.25000   0.57241   0.00000  Uiso   1.00
O36    O     0.08333   0.41667   0.27247   0.00000  Uiso   1.00
O37    O     0.16667   0.33333   0.42244   0.00000  Uiso   1.00
O38    O     0.08333   0.41667   0.49742   0.00000  Uiso   1.00
O39    O    -0.00000   0.25000   0.34745   0.00000  Uiso   1.00
O40    O     0.16667   0.33333   0.19748   0.00000  Uiso   1.00
Ce41   Ce    0.25000   0.25000   0.45993   0.00000  Uiso   1.00
Ce42   Ce    0.41667   0.33333   0.30996   0.00000  Uiso   1.00
O43    O     0.25000   0.25000   0.57241   0.00000  Uiso   1.00
O44    O     0.33333   0.41667   0.27247   0.00000  Uiso   1.00
O45    O     0.41667   0.33333   0.42244   0.00000  Uiso   1.00
O46    O     0.33333   0.41667   0.49742   0.00000  Uiso   1.00
O47    O     0.25000   0.25000   0.34745   0.00000  Uiso   1.00
O48    O     0.41667   0.33333   0.19748   0.00000  Uiso   1.00
Ce49   Ce    0.50000   0.25000   0.45993   0.00000  Uiso   1.00
Ce50   Ce    0.66667   0.33333   0.30996   0.00000  Uiso   1.00
O51    O     0.50000   0.25000   0.57241   0.00000  Uiso   1.00
O52    O     0.58333   0.41667   0.27247   0.00000  Uiso   1.00
O53    O     0.66667   0.33333   0.42244   0.00000  Uiso   1.00
O54    O     0.58333   0.41667   0.49742   0.00000  Uiso   1.00
O55    O     0.50000   0.25000   0.34745   0.00000  Uiso   1.00
O56    O     0.66667   0.33333   0.19748   0.00000  Uiso   1.00
Ce57   Ce    0.75000   0.25000   0.45993   0.00000  Uiso   1.00
Ce58   Ce    0.91667   0.33333   0.30996   0.00000  Uiso   1.00
O59    O     0.75000   0.25000   0.57241   0.00000  Uiso   1.00
O60    O     0.83333   0.41667   0.27247   0.00000  Uiso   1.00
O61    O     0.91667   0.33333   0.42244   0.00000  Uiso   1.00
O62    O     0.83333   0.41667   0.49742   0.00000  Uiso   1.00
O63    O     0.75000   0.25000   0.34745   0.00000  Uiso   1.00
O64    O     0.91667   0.33333   0.19748   0.00000  Uiso   1.00
Ce65   Ce   -0.00000   0.50000   0.45993   0.00000  Uiso   1.00
Ce66   Ce    0.16667   0.58333   0.30996   0.00000  Uiso   1.00
O67    O     0.00000   0.50000   0.57241   0.00000  Uiso   1.00
O68    O     0.08333   0.66667   0.27247   0.00000  Uiso   1.00
O69    O     0.16667   0.58333   0.42244   0.00000  Uiso   1.00
O70    O     0.08333   0.66667   0.49742   0.00000  Uiso   1.00
O71    O    -0.00000   0.50000   0.34745   0.00000  Uiso   1.00
O72    O     0.16667   0.58333   0.19748   0.00000  Uiso   1.00
Ce73   Ce    0.25000   0.50000   0.45993   0.00000  Uiso   1.00
Ce74   Ce    0.41667   0.58333   0.30996   0.00000  Uiso   1.00
O75    O     0.25000   0.50000   0.57241   0.00000  Uiso   1.00
O76    O     0.33333   0.66667   0.27247   0.00000  Uiso   1.00
O77    O     0.41667   0.58333   0.42244   0.00000  Uiso   1.00
O78    O     0.33333   0.66667   0.49742   0.00000  Uiso   1.00
O79    O     0.25000   0.50000   0.34745   0.00000  Uiso   1.00
O80    O     0.41667   0.58333   0.19748   0.00000  Uiso   1.00
Ce81   Ce    0.50000   0.50000   0.45993   0.00000  Uiso   1.00
Ce82   Ce    0.66667   0.58333   0.30996   0.00000  Uiso   1.00
O83    O     0.50000   0.50000   0.57241   0.00000  Uiso   1.00
O84    O     0.58333   0.66667   0.27247   0.00000  Uiso   1.00
O85    O     0.66667   0.58333   0.42244   0.00000  Uiso   1.00
O86    O     0.58333   0.66667   0.49742   0.00000  Uiso   1.00
O87    O     0.50000   0.50000   0.34745   0.00000  Uiso   1.00
O88    O     0.66667   0.58333   0.19748   0.00000  Uiso   1.00
Ce89   Ce    0.75000   0.50000   0.45993   0.00000  Uiso   1.00
Ce90   Ce    0.91667   0.58333   0.30996   0.00000  Uiso   1.00
O91    O     0.75000   0.50000   0.57241   0.00000  Uiso   1.00
O92    O     0.83333   0.66667   0.27247   0.00000  Uiso   1.00
O93    O     0.91667   0.58333   0.42244   0.00000  Uiso   1.00
O94    O     0.83333   0.66667   0.49742   0.00000  Uiso   1.00
O95    O     0.75000   0.50000   0.34745   0.00000  Uiso   1.00
O96    O     0.91667   0.58333   0.19748   0.00000  Uiso   1.00
Ce97   Ce   -0.00000   0.75000   0.45993   0.00000  Uiso   1.00
Ce98   Ce    0.16667   0.83333   0.30996   0.00000  Uiso   1.00
O99    O     0.00000   0.75000   0.57241   0.00000  Uiso   1.00
O100   O     0.08333   0.91667   0.27247   0.00000  Uiso   1.00
O101   O     0.16667   0.83333   0.42244   0.00000  Uiso   1.00
O102   O     0.08333   0.91667   0.49742   0.00000  Uiso   1.00
O103   O    -0.00000   0.75000   0.34745   0.00000  Uiso   1.00
O104   O     0.16667   0.83333   0.19748   0.00000  Uiso   1.00
Ce105  Ce    0.25000   0.75000   0.45993   0.00000  Uiso   1.00
Ce106  Ce    0.41667   0.83333   0.30996   0.00000  Uiso   1.00
O107   O     0.25000   0.75000   0.57241   0.00000  Uiso   1.00
O108   O     0.33333   0.91667   0.27247   0.00000  Uiso   1.00
O109   O     0.41667   0.83333   0.42244   0.00000  Uiso   1.00
O110   O     0.33333   0.91667   0.49742   0.00000  Uiso   1.00
O111   O     0.25000   0.75000   0.34745   0.00000  Uiso   1.00
O112   O     0.41667   0.83333   0.19748   0.00000  Uiso   1.00
Ce113  Ce    0.50000   0.75000   0.45993   0.00000  Uiso   1.00
Ce114  Ce    0.66667   0.83333   0.30996   0.00000  Uiso   1.00
O115   O     0.50000   0.75000   0.57241   0.00000  Uiso   1.00
O116   O     0.58333   0.91667   0.27247   0.00000  Uiso   1.00
O117   O     0.66667   0.83333   0.42244   0.00000  Uiso   1.00
O118   O     0.58333   0.91667   0.49742   0.00000  Uiso   1.00
O119   O     0.50000   0.75000   0.34745   0.00000  Uiso   1.00
O120   O     0.66667   0.83333   0.19748   0.00000  Uiso   1.00
Ce121  Ce    0.75000   0.75000   0.45993   0.00000  Uiso   1.00
Ce122  Ce    0.91667   0.83333   0.30996   0.00000  Uiso   1.00
O123   O     0.75000   0.75000   0.57241   0.00000  Uiso   1.00
O124   O     0.83333   0.91667   0.27247   0.00000  Uiso   1.00
O125   O     0.91667   0.83333   0.42244   0.00000  Uiso   1.00
O126   O     0.83333   0.91667   0.49742   0.00000  Uiso   1.00
O127   O     0.75000   0.75000   0.34745   0.00000  Uiso   1.00
O128   O     0.91667   0.83333   0.19748   0.00000  Uiso   1.00
Ir129  Ir    0.62755   0.87171   0.57241   0.00000  Uiso   1.00
Ir130  Ir    0.38290   0.63176   0.57241   0.00000  Uiso   1.00
Ir131  Ir    0.88375   0.62820   0.57241   0.00000  Uiso   1.00
Ir132  Ir    0.63909   0.38824   0.57241   0.00000  Uiso   1.00
O133   O     0.58333   0.42313   0.64471   0.00000  Uiso   1.00
O134   O     0.33333   0.67313   0.64471   0.00000  Uiso   1.00
O135   O     0.83333   0.67313   0.64471   0.00000  Uiso   1.00
O136   O     0.58333   0.92313   0.64471   0.00000  Uiso   1.00
O137   O     0.67274   0.33528   0.64832   0.00000  Uiso   1.00
O138   O     0.42274   0.58528   0.64832   0.00000  Uiso   1.00
O139   O     0.92274   0.58528   0.64832   0.00000  Uiso   1.00
O140   O     0.67274   0.83528   0.64832   0.00000  Uiso   1.00
O141   O     0.67456   0.33342   0.50166   0.00000  Uiso   1.00
O142   O     0.42456   0.58342   0.50166   0.00000  Uiso   1.00
O143   O     0.92456   0.58342   0.50166   0.00000  Uiso   1.00
O144   O     0.67456   0.83342   0.50166   0.00000  Uiso   1.00
Ir145  Ir    0.12902   0.38196   0.57241   0.00000  Uiso   1.00
Ir146  Ir    0.38522   0.13844   0.57241   0.00000  Uiso   1.00
O147   O     0.32946   0.17333   0.64471   0.00000  Uiso   1.00
O148   O     0.07946   0.42333   0.64471   0.00000  Uiso   1.00
O149   O     0.41887   0.08548   0.64832   0.00000  Uiso   1.00
O150   O     0.16887   0.33548   0.64832   0.00000  Uiso   1.00
O151   O     0.42069   0.08361   0.50166   0.00000  Uiso   1.00
O152   O     0.17069   0.33361   0.50166   0.00000  Uiso   1.00
loop_
_geom_bond_atom_site_label_1
_geom_bond_atom_site_label_2
_geom_bond_distance
_geom_bond_site_symmetry_2
_ccdc_geom_bond_type
O11    Ir146   2.116   .     S
O13    O151    1.669   .     D
O14    Ir146   1.917   .     S
O27    Ir129   1.940   1_545 S
O35    Ir145   2.018   .     S
O37    O152    1.669   .     D
O38    Ir145   1.913   .     S
O51    Ir132   2.144   .     S
O51    Ir146   1.751   .     S
O53    O141    1.672   .     D
O54    Ir132   1.951   .     S
O75    Ir130   2.046   .     S
O75    Ir145   1.849   .     S
O77    O142    1.672   .     D
O78    Ir130   1.945   .     S
O91    Ir131   2.027   .     S
O91    Ir132   1.722   .     S
O93    O143    1.672   .     D
O94    Ir131   1.979   .     S
O99    Ir131   1.842   1_455 S
O115   Ir129   1.929   .     S
O115   Ir130   1.820   .     S
O117   O144    1.672   .     D
O118   Ir129   1.979   .     S
Ir129  O27     1.940   1_565 S
Ir129  O136    1.990   .     S
Ir129  O140    1.937   .     S
Ir129  O144    1.878   .     S
Ir130  O134    1.950   .     S
Ir130  O138    1.973   .     S
Ir130  O142    1.917   .     S
Ir131  O99     1.842   1_655 S
Ir131  O135    1.987   .     S
Ir131  O139    1.938   .     S
Ir131  O143    1.879   .     S
Ir132  O133    1.953   .     S
Ir132  O137    1.980   .     S
Ir132  O141    1.924   .     S
Ir145  O148    1.950   .     S
Ir145  O150    1.973   .     S
Ir145  O152    1.917   .     S
Ir146  O147    1.953   .     S
Ir146  O149    1.980   .     S
Ir146  O151    1.924   .     S
