data_CeO2\(1\1\1)_44_bO_ir_1
_audit_creation_date              2025-04-16
_audit_creation_method            'Materials Studio'
_symmetry_space_group_name_H-M    'P1'
_symmetry_Int_Tables_number       1
_symmetry_cell_setting            triclinic
loop_
_symmetry_equiv_pos_as_xyz
  x,y,z
_cell_length_a                    15.4643
_cell_length_b                    15.4643
_cell_length_c                    21.0482
_cell_angle_alpha                 90.0000
_cell_angle_beta                  90.0000
_cell_angle_gamma                 120.0000
loop_
_atom_site_label
_atom_site_type_symbol
_atom_site_fract_x
_atom_site_fract_y
_atom_site_fract_z
_atom_site_U_iso_or_equiv
_atom_site_adp_type
_atom_site_occupancy
Ir1    Ir   -0.00000  -0.00000   0.45993   0.00000  Uiso   1.00
Ce2    Ce    0.16667   0.08333   0.30996   0.00000  Uiso   1.00
Ce3    Ce    0.08333   0.16667   0.15999   0.00000  Uiso   1.00
O4     O     0.00000   0.00000   0.12250   0.00000  Uiso   1.00
O5     O     0.08333   0.16667   0.27247   0.00000  Uiso   1.00
O6     O     0.16667   0.08333   0.42244   0.00000  Uiso   1.00
O7     O     0.08333   0.16667   0.04751   0.00000  Uiso   1.00
O8     O     0.08333   0.16667   0.49742   0.00000  Uiso   1.00
O9     O    -0.00000  -0.00000   0.34745   0.00000  Uiso   1.00
O10    O     0.16667   0.08333   0.19748   0.00000  Uiso   1.00
Ce11   Ce    0.25000  -0.00000   0.45993   0.00000  Uiso   1.00
Ce12   Ce    0.41667   0.08333   0.30996   0.00000  Uiso   1.00
Ce13   Ce    0.33333   0.16667   0.15999   0.00000  Uiso   1.00
O14    O     0.25000   0.00000   0.12250   0.00000  Uiso   1.00
O15    O     0.33333   0.16667   0.27247   0.00000  Uiso   1.00
O16    O     0.41667   0.08333   0.42244   0.00000  Uiso   1.00
O17    O     0.33333   0.16667   0.04751   0.00000  Uiso   1.00
O18    O     0.33333   0.16667   0.49742   0.00000  Uiso   1.00
O19    O     0.25000  -0.00000   0.34745   0.00000  Uiso   1.00
O20    O     0.41667   0.08333   0.19748   0.00000  Uiso   1.00
Ce21   Ce    0.50000  -0.00000   0.45993   0.00000  Uiso   1.00
Ce22   Ce    0.66667   0.08333   0.30996   0.00000  Uiso   1.00
Ce23   Ce    0.58333   0.16667   0.15999   0.00000  Uiso   1.00
O24    O     0.50000   0.00000   0.12250   0.00000  Uiso   1.00
O25    O     0.58333   0.16667   0.27247   0.00000  Uiso   1.00
O26    O     0.66667   0.08333   0.42244   0.00000  Uiso   1.00
O27    O     0.58333   0.16667   0.04751   0.00000  Uiso   1.00
O28    O     0.58333   0.16667   0.49742   0.00000  Uiso   1.00
O29    O     0.50000  -0.00000   0.34745   0.00000  Uiso   1.00
O30    O     0.66667   0.08333   0.19748   0.00000  Uiso   1.00
Ir31   Ir    0.75000  -0.00000   0.45993   0.00000  Uiso   1.00
Ce32   Ce    0.91667   0.08333   0.30996   0.00000  Uiso   1.00
Ce33   Ce    0.83333   0.16667   0.15999   0.00000  Uiso   1.00
O34    O     0.75000   0.00000   0.12250   0.00000  Uiso   1.00
O35    O     0.83333   0.16667   0.27247   0.00000  Uiso   1.00
O36    O     0.91667   0.08333   0.42244   0.00000  Uiso   1.00
O37    O     0.83333   0.16667   0.04751   0.00000  Uiso   1.00
O38    O     0.83333   0.16667   0.49742   0.00000  Uiso   1.00
O39    O     0.75000  -0.00000   0.34745   0.00000  Uiso   1.00
O40    O     0.91667   0.08333   0.19748   0.00000  Uiso   1.00
Ir41   Ir   -0.00000   0.25000   0.45993   0.00000  Uiso   1.00
Ce42   Ce    0.16667   0.33333   0.30996   0.00000  Uiso   1.00
Ce43   Ce    0.08333   0.41667   0.15999   0.00000  Uiso   1.00
O44    O     0.00000   0.25000   0.12250   0.00000  Uiso   1.00
O45    O     0.08333   0.41667   0.27247   0.00000  Uiso   1.00
O46    O     0.16667   0.33333   0.42244   0.00000  Uiso   1.00
O47    O     0.08333   0.41667   0.04751   0.00000  Uiso   1.00
O48    O     0.08333   0.41667   0.49742   0.00000  Uiso   1.00
O49    O    -0.00000   0.25000   0.34745   0.00000  Uiso   1.00
O50    O     0.16667   0.33333   0.19748   0.00000  Uiso   1.00
Ir51   Ir    0.25000   0.25000   0.45993   0.00000  Uiso   1.00
Ce52   Ce    0.41667   0.33333   0.30996   0.00000  Uiso   1.00
Ce53   Ce    0.33333   0.41667   0.15999   0.00000  Uiso   1.00
O54    O     0.25000   0.25000   0.12250   0.00000  Uiso   1.00
O55    O     0.33333   0.41667   0.27247   0.00000  Uiso   1.00
O56    O     0.41667   0.33333   0.42244   0.00000  Uiso   1.00
O57    O     0.33333   0.41667   0.04751   0.00000  Uiso   1.00
O58    O     0.33333   0.41667   0.49742   0.00000  Uiso   1.00
O59    O     0.25000   0.25000   0.34745   0.00000  Uiso   1.00
O60    O     0.41667   0.33333   0.19748   0.00000  Uiso   1.00
Ce61   Ce    0.50000   0.25000   0.45993   0.00000  Uiso   1.00
Ce62   Ce    0.66667   0.33333   0.30996   0.00000  Uiso   1.00
Ce63   Ce    0.58333   0.41667   0.15999   0.00000  Uiso   1.00
O64    O     0.50000   0.25000   0.12250   0.00000  Uiso   1.00
O65    O     0.58333   0.41667   0.27247   0.00000  Uiso   1.00
O66    O     0.66667   0.33333   0.42244   0.00000  Uiso   1.00
O67    O     0.58333   0.41667   0.04751   0.00000  Uiso   1.00
O68    O     0.58333   0.41667   0.49742   0.00000  Uiso   1.00
O69    O     0.50000   0.25000   0.34745   0.00000  Uiso   1.00
O70    O     0.66667   0.33333   0.19748   0.00000  Uiso   1.00
Ce71   Ce    0.75000   0.25000   0.45993   0.00000  Uiso   1.00
Ce72   Ce    0.91667   0.33333   0.30996   0.00000  Uiso   1.00
Ce73   Ce    0.83333   0.41667   0.15999   0.00000  Uiso   1.00
O74    O     0.75000   0.25000   0.12250   0.00000  Uiso   1.00
O75    O     0.83333   0.41667   0.27247   0.00000  Uiso   1.00
O76    O     0.91667   0.33333   0.42244   0.00000  Uiso   1.00
O77    O     0.83333   0.41667   0.04751   0.00000  Uiso   1.00
O78    O     0.83333   0.41667   0.49742   0.00000  Uiso   1.00
O79    O     0.75000   0.25000   0.34745   0.00000  Uiso   1.00
O80    O     0.91667   0.33333   0.19748   0.00000  Uiso   1.00
Ce81   Ce   -0.00000   0.50000   0.45993   0.00000  Uiso   1.00
Ce82   Ce    0.16667   0.58333   0.30996   0.00000  Uiso   1.00
Ce83   Ce    0.08333   0.66667   0.15999   0.00000  Uiso   1.00
O84    O     0.00000   0.50000   0.12250   0.00000  Uiso   1.00
O85    O     0.08333   0.66667   0.27247   0.00000  Uiso   1.00
O86    O     0.16667   0.58333   0.42244   0.00000  Uiso   1.00
O87    O     0.08333   0.66667   0.04751   0.00000  Uiso   1.00
O88    O     0.08333   0.66667   0.49742   0.00000  Uiso   1.00
O89    O    -0.00000   0.50000   0.34745   0.00000  Uiso   1.00
O90    O     0.16667   0.58333   0.19748   0.00000  Uiso   1.00
Ir91   Ir    0.25000   0.50000   0.45993   0.00000  Uiso   1.00
Ce92   Ce    0.41667   0.58333   0.30996   0.00000  Uiso   1.00
Ce93   Ce    0.33333   0.66667   0.15999   0.00000  Uiso   1.00
O94    O     0.25000   0.50000   0.12250   0.00000  Uiso   1.00
O95    O     0.33333   0.66667   0.27247   0.00000  Uiso   1.00
O96    O     0.41667   0.58333   0.42244   0.00000  Uiso   1.00
O97    O     0.33333   0.66667   0.04751   0.00000  Uiso   1.00
O98    O     0.33333   0.66667   0.49742   0.00000  Uiso   1.00
O99    O     0.25000   0.50000   0.34745   0.00000  Uiso   1.00
O100   O     0.41667   0.58333   0.19748   0.00000  Uiso   1.00
Ir101  Ir    0.50000   0.50000   0.45993   0.00000  Uiso   1.00
Ce102  Ce    0.66667   0.58333   0.30996   0.00000  Uiso   1.00
Ce103  Ce    0.58333   0.66667   0.15999   0.00000  Uiso   1.00
O104   O     0.50000   0.50000   0.12250   0.00000  Uiso   1.00
O105   O     0.58333   0.66667   0.27247   0.00000  Uiso   1.00
O106   O     0.66667   0.58333   0.42244   0.00000  Uiso   1.00
O107   O     0.58333   0.66667   0.04751   0.00000  Uiso   1.00
O108   O     0.58333   0.66667   0.49742   0.00000  Uiso   1.00
O109   O     0.50000   0.50000   0.34745   0.00000  Uiso   1.00
O110   O     0.66667   0.58333   0.19748   0.00000  Uiso   1.00
Ce111  Ce    0.75000   0.50000   0.45993   0.00000  Uiso   1.00
Ce112  Ce    0.91667   0.58333   0.30996   0.00000  Uiso   1.00
Ce113  Ce    0.83333   0.66667   0.15999   0.00000  Uiso   1.00
O114   O     0.75000   0.50000   0.12250   0.00000  Uiso   1.00
O115   O     0.83333   0.66667   0.27247   0.00000  Uiso   1.00
O116   O     0.91667   0.58333   0.42244   0.00000  Uiso   1.00
O117   O     0.83333   0.66667   0.04751   0.00000  Uiso   1.00
O118   O     0.83333   0.66667   0.49742   0.00000  Uiso   1.00
O119   O     0.75000   0.50000   0.34745   0.00000  Uiso   1.00
O120   O     0.91667   0.58333   0.19748   0.00000  Uiso   1.00
Ce121  Ce   -0.00000   0.75000   0.45993   0.00000  Uiso   1.00
Ce122  Ce    0.16667   0.83333   0.30996   0.00000  Uiso   1.00
Ce123  Ce    0.08333   0.91667   0.15999   0.00000  Uiso   1.00
O124   O     0.00000   0.75000   0.12250   0.00000  Uiso   1.00
O125   O     0.08333   0.91667   0.27247   0.00000  Uiso   1.00
O126   O     0.16667   0.83333   0.42244   0.00000  Uiso   1.00
O127   O     0.08333   0.91667   0.04751   0.00000  Uiso   1.00
O128   O     0.08333   0.91667   0.49742   0.00000  Uiso   1.00
O129   O    -0.00000   0.75000   0.34745   0.00000  Uiso   1.00
O130   O     0.16667   0.83333   0.19748   0.00000  Uiso   1.00
Ce131  Ce    0.25000   0.75000   0.45993   0.00000  Uiso   1.00
Ce132  Ce    0.41667   0.83333   0.30996   0.00000  Uiso   1.00
Ce133  Ce    0.33333   0.91667   0.15999   0.00000  Uiso   1.00
O134   O     0.25000   0.75000   0.12250   0.00000  Uiso   1.00
O135   O     0.33333   0.91667   0.27247   0.00000  Uiso   1.00
O136   O     0.41667   0.83333   0.42244   0.00000  Uiso   1.00
O137   O     0.33333   0.91667   0.04751   0.00000  Uiso   1.00
O138   O     0.33333   0.91667   0.49742   0.00000  Uiso   1.00
O139   O     0.25000   0.75000   0.34745   0.00000  Uiso   1.00
O140   O     0.41667   0.83333   0.19748   0.00000  Uiso   1.00
Ir141  Ir    0.50000   0.75000   0.45993   0.00000  Uiso   1.00
Ce142  Ce    0.66667   0.83333   0.30996   0.00000  Uiso   1.00
Ce143  Ce    0.58333   0.91667   0.15999   0.00000  Uiso   1.00
O144   O     0.50000   0.75000   0.12250   0.00000  Uiso   1.00
O145   O     0.58333   0.91667   0.27247   0.00000  Uiso   1.00
O146   O     0.66667   0.83333   0.42244   0.00000  Uiso   1.00
O147   O     0.58333   0.91667   0.04751   0.00000  Uiso   1.00
O148   O     0.58333   0.91667   0.49742   0.00000  Uiso   1.00
O149   O     0.50000   0.75000   0.34745   0.00000  Uiso   1.00
O150   O     0.66667   0.83333   0.19748   0.00000  Uiso   1.00
Ir151  Ir    0.75000   0.75000   0.45993   0.00000  Uiso   1.00
Ce152  Ce    0.91667   0.83333   0.30996   0.00000  Uiso   1.00
Ce153  Ce    0.83333   0.91667   0.15999   0.00000  Uiso   1.00
O154   O     0.75000   0.75000   0.12250   0.00000  Uiso   1.00
O155   O     0.83333   0.91667   0.27247   0.00000  Uiso   1.00
O156   O     0.91667   0.83333   0.42244   0.00000  Uiso   1.00
O157   O     0.83333   0.91667   0.04751   0.00000  Uiso   1.00
O158   O     0.83333   0.91667   0.49742   0.00000  Uiso   1.00
O159   O     0.75000   0.75000   0.34745   0.00000  Uiso   1.00
O160   O     0.91667   0.83333   0.19748   0.00000  Uiso   1.00
