data_CeO2_111_33_vO-Ir-0
_audit_creation_date              2025-04-26
_audit_creation_method            'Materials Studio'
_symmetry_space_group_name_H-M    'P1'
_symmetry_Int_Tables_number       1
_symmetry_cell_setting            triclinic
loop_
_symmetry_equiv_pos_as_xyz
  x,y,z
_cell_length_a                    11.5982
_cell_length_b                    11.5982
_cell_length_c                    21.0482
_cell_angle_alpha                 90.0000
_cell_angle_beta                  90.0000
_cell_angle_gamma                 120.0000
loop_
_atom_site_label
_atom_site_type_symbol
_atom_site_fract_x
_atom_site_fract_y
_atom_site_fract_z
_atom_site_U_iso_or_equiv
_atom_site_adp_type
_atom_site_occupancy
Ce1    Ce   -0.00000  -0.00000   0.45993   0.00000  Uiso   1.00
Ce2    Ce    0.22222   0.11111   0.30996   0.00000  Uiso   1.00
O3     O    -0.00000  -0.00000   0.57241   0.00000  Uiso   1.00
O4     O     0.11111   0.22222   0.27247   0.00000  Uiso   1.00
O5     O     0.22222   0.11111   0.42244   0.00000  Uiso   1.00
O6     O     0.11111   0.22222   0.49742   0.00000  Uiso   1.00
O7     O    -0.00000  -0.00000   0.34745   0.00000  Uiso   1.00
Ce8    Ce    0.33333  -0.00000   0.45993   0.00000  Uiso   1.00
Ce9    Ce    0.55556   0.11111   0.30996   0.00000  Uiso   1.00
O10    O     0.33333  -0.00000   0.57241   0.00000  Uiso   1.00
O11    O     0.44444   0.22222   0.27247   0.00000  Uiso   1.00
O12    O     0.55556   0.11111   0.42244   0.00000  Uiso   1.00
O13    O     0.44444   0.22222   0.49742   0.00000  Uiso   1.00
O14    O     0.33333  -0.00000   0.34745   0.00000  Uiso   1.00
Ce15   Ce    0.66667  -0.00000   0.45993   0.00000  Uiso   1.00
Ce16   Ce    0.88889   0.11111   0.30996   0.00000  Uiso   1.00
O17    O     0.66667  -0.00000   0.57241   0.00000  Uiso   1.00
O18    O     0.77778   0.22222   0.27247   0.00000  Uiso   1.00
O19    O     0.88889   0.11111   0.42244   0.00000  Uiso   1.00
O20    O     0.77778   0.22222   0.49742   0.00000  Uiso   1.00
O21    O     0.66667  -0.00000   0.34745   0.00000  Uiso   1.00
Ce22   Ce   -0.00000   0.33333   0.45993   0.00000  Uiso   1.00
Ce23   Ce    0.22222   0.44444   0.30996   0.00000  Uiso   1.00
O24    O    -0.00000   0.33333   0.57241   0.00000  Uiso   1.00
O25    O     0.11111   0.55556   0.27247   0.00000  Uiso   1.00
O26    O     0.22222   0.44444   0.42244   0.00000  Uiso   1.00
O27    O     0.11111   0.55556   0.49742   0.00000  Uiso   1.00
O28    O    -0.00000   0.33333   0.34745   0.00000  Uiso   1.00
Ce29   Ce    0.33333   0.33333   0.45993   0.00000  Uiso   1.00
Ce30   Ce    0.55556   0.44444   0.30996   0.00000  Uiso   1.00
O31    O     0.33333   0.33333   0.57241   0.00000  Uiso   1.00
O32    O     0.44444   0.55556   0.27247   0.00000  Uiso   1.00
O33    O     0.55556   0.44444   0.42244   0.00000  Uiso   1.00
O34    O     0.44444   0.55556   0.49742   0.00000  Uiso   1.00
O35    O     0.33333   0.33333   0.34745   0.00000  Uiso   1.00
Ce36   Ce    0.66667   0.33333   0.45993   0.00000  Uiso   1.00
Ce37   Ce    0.88889   0.44444   0.30996   0.00000  Uiso   1.00
O38    O     0.66667   0.33333   0.57241   0.00000  Uiso   1.00
O39    O     0.77778   0.55556   0.27247   0.00000  Uiso   1.00
O40    O     0.88889   0.44444   0.42244   0.00000  Uiso   1.00
O41    O     0.77778   0.55556   0.49742   0.00000  Uiso   1.00
O42    O     0.66667   0.33333   0.34745   0.00000  Uiso   1.00
Ce43   Ce   -0.00000   0.66667   0.45993   0.00000  Uiso   1.00
Ce44   Ce    0.22222   0.77778   0.30996   0.00000  Uiso   1.00
O45    O    -0.00000   0.66667   0.57241   0.00000  Uiso   1.00
O46    O     0.11111   0.88889   0.27247   0.00000  Uiso   1.00
O47    O     0.22222   0.77778   0.42244   0.00000  Uiso   1.00
O48    O     0.11111   0.88889   0.49742   0.00000  Uiso   1.00
O49    O    -0.00000   0.66667   0.34745   0.00000  Uiso   1.00
Ce50   Ce    0.33333   0.66667   0.45993   0.00000  Uiso   1.00
Ce51   Ce    0.55556   0.77778   0.30996   0.00000  Uiso   1.00
O52    O     0.33333   0.66667   0.57241   0.00000  Uiso   1.00
O53    O     0.44444   0.88889   0.27247   0.00000  Uiso   1.00
O54    O     0.55556   0.77778   0.42244   0.00000  Uiso   1.00
O55    O     0.44444   0.88889   0.49742   0.00000  Uiso   1.00
O56    O     0.33333   0.66667   0.34745   0.00000  Uiso   1.00
Ce57   Ce    0.66667   0.66667   0.45993   0.00000  Uiso   1.00
Ce58   Ce    0.88889   0.77778   0.30996   0.00000  Uiso   1.00
O59    O     0.66667   0.66667   0.57241   0.00000  Uiso   1.00
O60    O     0.77778   0.88889   0.27247   0.00000  Uiso   1.00
O61    O     0.88889   0.77778   0.42244   0.00000  Uiso   1.00
O62    O     0.77778   0.88889   0.49742   0.00000  Uiso   1.00
O63    O     0.66667   0.66667   0.34745   0.00000  Uiso   1.00
Ir64   Ir    0.49197   0.83062   0.57349   0.00000  Uiso   1.00
O65    O     0.41995   0.90566   0.63222   0.00000  Uiso   1.00
O66    O     0.56244   0.76382   0.64172   0.00000  Uiso   1.00
O67    O     0.55931   0.77277   0.51616   0.00000  Uiso   1.00
Ir68   Ir    0.49190   0.50494   0.57828   0.00000  Uiso   1.00
O69    O     0.42431   0.57633   0.63422   0.00000  Uiso   1.00
O70    O     0.55313   0.44676   0.64709   0.00000  Uiso   1.00
O71    O     0.56544   0.43664   0.51651   0.00000  Uiso   1.00
loop_
_geom_bond_atom_site_label_1
_geom_bond_atom_site_label_2
_geom_bond_distance
_geom_bond_site_symmetry_2
_ccdc_geom_bond_type
O17    Ir64    1.996   1_545 S
O31    Ir68    1.923   .     S
O33    O71     1.988   .     D
O34    Ir68    1.967   .     S
O52    Ir64    1.872   .     S
O54    O67     1.975   .     D
O55    Ir64    1.923   .     S
O59    Ir68    1.960   .     S
Ir64   O65     1.926   .     S
Ir64   O67     1.744   .     S
Ir64   O17     1.996   1_565 S
Ir64   O66     1.991   .     S
Ir68   O69     1.826   .     S
Ir68   O70     1.881   .     S
Ir68   O71     1.929   .     S
