data_CeO2_111_33_bO_Ir_0
_audit_creation_date              2025-04-17
_audit_creation_method            'Materials Studio'
_symmetry_space_group_name_H-M    'P1'
_symmetry_Int_Tables_number       1
_symmetry_cell_setting            triclinic
loop_
_symmetry_equiv_pos_as_xyz
  x,y,z
_cell_length_a                    11.5982
_cell_length_b                    11.5982
_cell_length_c                    21.0482
_cell_angle_alpha                 90.0000
_cell_angle_beta                  90.0000
_cell_angle_gamma                 120.0000
loop_
_atom_site_label
_atom_site_type_symbol
_atom_site_fract_x
_atom_site_fract_y
_atom_site_fract_z
_atom_site_U_iso_or_equiv
_atom_site_adp_type
_atom_site_occupancy
Ce1    Ce   -0.00000  -0.00000   0.45993   0.00000  Uiso   1.00
Ce2    Ce    0.22222   0.11111   0.30996   0.00000  Uiso   1.00
Ce3    Ce    0.11111   0.22222   0.15999   0.00000  Uiso   1.00
O4     O     0.00000   0.00000   0.12250   0.00000  Uiso   1.00
O5     O     0.11111   0.22222   0.27247   0.00000  Uiso   1.00
O6     O     0.22222   0.11111   0.42244   0.00000  Uiso   1.00
O7     O     0.11111   0.22222   0.04751   0.00000  Uiso   1.00
O8     O     0.11111   0.22222   0.49742   0.00000  Uiso   1.00
O9     O    -0.00000  -0.00000   0.34745   0.00000  Uiso   1.00
O10    O     0.22222   0.11111   0.19748   0.00000  Uiso   1.00
Ir11   Ir    0.33333  -0.00000   0.45993   0.00000  Uiso   1.00
Ce12   Ce    0.55556   0.11111   0.30996   0.00000  Uiso   1.00
Ce13   Ce    0.44444   0.22222   0.15999   0.00000  Uiso   1.00
O14    O     0.33333   0.00000   0.12250   0.00000  Uiso   1.00
O15    O     0.44444   0.22222   0.27247   0.00000  Uiso   1.00
O16    O     0.55556   0.11111   0.42244   0.00000  Uiso   1.00
O17    O     0.44444   0.22222   0.04751   0.00000  Uiso   1.00
O18    O     0.44444   0.22222   0.49742   0.00000  Uiso   1.00
O19    O     0.33333  -0.00000   0.34745   0.00000  Uiso   1.00
O20    O     0.55556   0.11111   0.19748   0.00000  Uiso   1.00
Ir21   Ir    0.66667  -0.00000   0.45993   0.00000  Uiso   1.00
Ce22   Ce    0.88889   0.11111   0.30996   0.00000  Uiso   1.00
Ce23   Ce    0.77778   0.22222   0.15999   0.00000  Uiso   1.00
O24    O     0.66667   0.00000   0.12250   0.00000  Uiso   1.00
O25    O     0.77778   0.22222   0.27247   0.00000  Uiso   1.00
O26    O     0.88889   0.11111   0.42244   0.00000  Uiso   1.00
O27    O     0.77778   0.22222   0.04751   0.00000  Uiso   1.00
O28    O     0.77778   0.22222   0.49742   0.00000  Uiso   1.00
O29    O     0.66667  -0.00000   0.34745   0.00000  Uiso   1.00
O30    O     0.88889   0.11111   0.19748   0.00000  Uiso   1.00
Ce31   Ce   -0.00000   0.33333   0.45993   0.00000  Uiso   1.00
Ce32   Ce    0.22222   0.44444   0.30996   0.00000  Uiso   1.00
Ce33   Ce    0.11111   0.55556   0.15999   0.00000  Uiso   1.00
O34    O     0.00000   0.33333   0.12250   0.00000  Uiso   1.00
O35    O     0.11111   0.55556   0.27247   0.00000  Uiso   1.00
O36    O     0.22222   0.44444   0.42244   0.00000  Uiso   1.00
O37    O     0.11111   0.55556   0.04751   0.00000  Uiso   1.00
O38    O     0.11111   0.55556   0.49742   0.00000  Uiso   1.00
O39    O    -0.00000   0.33333   0.34745   0.00000  Uiso   1.00
O40    O     0.22222   0.44444   0.19748   0.00000  Uiso   1.00
Ir41   Ir    0.33333   0.33333   0.45993   0.00000  Uiso   1.00
Ce42   Ce    0.55556   0.44444   0.30996   0.00000  Uiso   1.00
Ce43   Ce    0.44444   0.55556   0.15999   0.00000  Uiso   1.00
O44    O     0.33333   0.33333   0.12250   0.00000  Uiso   1.00
O45    O     0.44444   0.55556   0.27247   0.00000  Uiso   1.00
O46    O     0.55556   0.44444   0.42244   0.00000  Uiso   1.00
O47    O     0.44444   0.55556   0.04751   0.00000  Uiso   1.00
O48    O     0.44444   0.55556   0.49742   0.00000  Uiso   1.00
O49    O     0.33333   0.33333   0.34745   0.00000  Uiso   1.00
O50    O     0.55556   0.44444   0.19748   0.00000  Uiso   1.00
Ir51   Ir    0.66667   0.33333   0.45993   0.00000  Uiso   1.00
Ce52   Ce    0.88889   0.44444   0.30996   0.00000  Uiso   1.00
Ce53   Ce    0.77778   0.55556   0.15999   0.00000  Uiso   1.00
O54    O     0.66667   0.33333   0.12250   0.00000  Uiso   1.00
O55    O     0.77778   0.55556   0.27247   0.00000  Uiso   1.00
O56    O     0.88889   0.44444   0.42244   0.00000  Uiso   1.00
O57    O     0.77778   0.55556   0.04751   0.00000  Uiso   1.00
O58    O     0.77778   0.55556   0.49742   0.00000  Uiso   1.00
O59    O     0.66667   0.33333   0.34745   0.00000  Uiso   1.00
O60    O     0.88889   0.44444   0.19748   0.00000  Uiso   1.00
Ce61   Ce   -0.00000   0.66667   0.45993   0.00000  Uiso   1.00
Ce62   Ce    0.22222   0.77778   0.30996   0.00000  Uiso   1.00
Ce63   Ce    0.11111   0.88889   0.15999   0.00000  Uiso   1.00
O64    O     0.00000   0.66667   0.12250   0.00000  Uiso   1.00
O65    O     0.11111   0.88889   0.27247   0.00000  Uiso   1.00
O66    O     0.22222   0.77778   0.42244   0.00000  Uiso   1.00
O67    O     0.11111   0.88889   0.04751   0.00000  Uiso   1.00
O68    O     0.11111   0.88889   0.49742   0.00000  Uiso   1.00
O69    O    -0.00000   0.66667   0.34745   0.00000  Uiso   1.00
O70    O     0.22222   0.77778   0.19748   0.00000  Uiso   1.00
Ir71   Ir    0.33333   0.66667   0.45993   0.00000  Uiso   1.00
Ce72   Ce    0.55556   0.77778   0.30996   0.00000  Uiso   1.00
Ce73   Ce    0.44444   0.88889   0.15999   0.00000  Uiso   1.00
O74    O     0.33333   0.66667   0.12250   0.00000  Uiso   1.00
O75    O     0.44444   0.88889   0.27247   0.00000  Uiso   1.00
O76    O     0.55556   0.77778   0.42244   0.00000  Uiso   1.00
O77    O     0.44444   0.88889   0.04751   0.00000  Uiso   1.00
O78    O     0.44444   0.88889   0.49742   0.00000  Uiso   1.00
O79    O     0.33333   0.66667   0.34745   0.00000  Uiso   1.00
O80    O     0.55556   0.77778   0.19748   0.00000  Uiso   1.00
Ir81   Ir    0.66667   0.66667   0.45993   0.00000  Uiso   1.00
Ce82   Ce    0.88889   0.77778   0.30996   0.00000  Uiso   1.00
Ce83   Ce    0.77778   0.88889   0.15999   0.00000  Uiso   1.00
O84    O     0.66667   0.66667   0.12250   0.00000  Uiso   1.00
O85    O     0.77778   0.88889   0.27247   0.00000  Uiso   1.00
O86    O     0.88889   0.77778   0.42244   0.00000  Uiso   1.00
O87    O     0.77778   0.88889   0.04751   0.00000  Uiso   1.00
O88    O     0.77778   0.88889   0.49742   0.00000  Uiso   1.00
O89    O     0.66667   0.66667   0.34745   0.00000  Uiso   1.00
O90    O     0.88889   0.77778   0.19748   0.00000  Uiso   1.00
