
#======================================================================
# CRYSTAL DATA
#----------------------------------------------------------------------
data_VESTA_phase_1

_chemical_name_common                  'Generated by VASPKIT code             '
_cell_length_a                         11.598200
_cell_length_b                         11.598200
_cell_length_c                         21.048201
_cell_angle_alpha                      90.000000
_cell_angle_beta                       90.000000
_cell_angle_gamma                      120.000000
_cell_volume                           2452.035657
_space_group_name_H-M_alt              'P 1'
_space_group_IT_number                 1

loop_
_space_group_symop_operation_xyz
   'x, y, z'

loop_
   _atom_site_label
   _atom_site_occupancy
   _atom_site_fract_x
   _atom_site_fract_y
   _atom_site_fract_z
   _atom_site_adp_type
   _atom_site_U_iso_or_equiv
   _atom_site_type_symbol
   Ce1        1.0     0.003550     0.996144     0.456812    Uiso  ? Ce
   Ce2        1.0     0.222220     0.111110     0.309960    Uiso  ? Ce
   Ce3        1.0     0.325347     0.997635     0.460490    Uiso  ? Ce
   Ce4        1.0     0.555560     0.111110     0.309960    Uiso  ? Ce
   Ce5        1.0     0.669444     0.005314     0.461277    Uiso  ? Ce
   Ce6        1.0     0.888890     0.111110     0.309960    Uiso  ? Ce
   Ce7        1.0     0.994243     0.330449     0.461653    Uiso  ? Ce
   Ce8        1.0     0.222220     0.444440     0.309960    Uiso  ? Ce
   Ce9        1.0     0.340310     0.343575     0.462280    Uiso  ? Ce
   Ce10       1.0     0.555560     0.444440     0.309960    Uiso  ? Ce
   Ce11       1.0     0.670982     0.329439     0.456636    Uiso  ? Ce
   Ce12       1.0     0.888890     0.444440     0.309960    Uiso  ? Ce
   Ce13       1.0     0.005188     0.676212     0.459244    Uiso  ? Ce
   Ce14       1.0     0.222220     0.777780     0.309960    Uiso  ? Ce
   Ce15       1.0     0.333285     0.667030     0.458474    Uiso  ? Ce
   Ce16       1.0     0.555560     0.777780     0.309960    Uiso  ? Ce
   Ce17       1.0     0.657036     0.659732     0.462512    Uiso  ? Ce
   Ce18       1.0     0.888890     0.777780     0.309960    Uiso  ? Ce
   O1         1.0     0.010363     0.994158     0.586984    Uiso  ? O
   O2         1.0     0.111110     0.222220     0.272470    Uiso  ? O
   O3         1.0     0.226584     0.118675     0.421705    Uiso  ? O
   O4         1.0     0.109525     0.218096     0.502840    Uiso  ? O
   O5         1.0     0.000000     0.000000     0.347450    Uiso  ? O
   O6         1.0     0.336794     0.032336     0.581777    Uiso  ? O
   O7         1.0     0.444440     0.222220     0.272470    Uiso  ? O
   O8         1.0     0.552344     0.107475     0.421172    Uiso  ? O
   O9         1.0     0.448426     0.219942     0.498385    Uiso  ? O
   O10        1.0     0.333330     0.000000     0.347450    Uiso  ? O
   O11        1.0     0.639069     0.974756     0.582290    Uiso  ? O
   O12        1.0     0.777780     0.222220     0.272470    Uiso  ? O
   O13        1.0     0.891113     0.108878     0.422841    Uiso  ? O
   O14        1.0     0.777096     0.222126     0.490451    Uiso  ? O
   O15        1.0     0.666670     0.000000     0.347450    Uiso  ? O
   O16        1.0     0.023193     0.359518     0.580925    Uiso  ? O
   O17        1.0     0.111110     0.555560     0.272470    Uiso  ? O
   O18        1.0     0.213005     0.431266     0.422157    Uiso  ? O
   O19        1.0     0.105071     0.559624     0.502115    Uiso  ? O
   O20        1.0     0.000000     0.333330     0.347450    Uiso  ? O
   O21        1.0     0.310962     0.345709     0.590833    Uiso  ? O
   O22        1.0     0.444440     0.555560     0.272470    Uiso  ? O
   O23        1.0     0.556071     0.444172     0.418371    Uiso  ? O
   O24        1.0     0.438857     0.559566     0.499337    Uiso  ? O
   O25        1.0     0.333330     0.333330     0.347450    Uiso  ? O
   O26        1.0     0.664789     0.338013     0.590040    Uiso  ? O
   O27        1.0     0.777780     0.555560     0.272470    Uiso  ? O
   O28        1.0     0.892874     0.446790     0.420757    Uiso  ? O
   O29        1.0     0.782972     0.551965     0.498085    Uiso  ? O
   O30        1.0     0.666670     0.333330     0.347450    Uiso  ? O
   O31        1.0     0.968887     0.662042     0.583424    Uiso  ? O
   O32        1.0     0.111110     0.888890     0.272470    Uiso  ? O
   O33        1.0     0.220052     0.781468     0.420066    Uiso  ? O
   O34        1.0     0.110063     0.890290     0.489368    Uiso  ? O
   O35        1.0     0.000000     0.666670     0.347450    Uiso  ? O
   O36        1.0     0.300061     0.700331     0.593510    Uiso  ? O
   O37        1.0     0.444440     0.888890     0.272470    Uiso  ? O
   O38        1.0     0.568801     0.786424     0.422499    Uiso  ? O
   O39        1.0     0.440210     0.894831     0.502908    Uiso  ? O
   O40        1.0     0.333330     0.666670     0.347450    Uiso  ? O
   O41        1.0     0.657108     0.692762     0.587924    Uiso  ? O
   O42        1.0     0.777780     0.888890     0.272470    Uiso  ? O
   O43        1.0     0.881460     0.773716     0.421599    Uiso  ? O
   O44        1.0     0.782506     0.891052     0.502660    Uiso  ? O
   O45        1.0     0.666670     0.666670     0.347450    Uiso  ? O
   O46        1.0     0.415679     0.596582     0.641897    Uiso  ? O
   O47        1.0     0.552477     0.456462     0.671180    Uiso  ? O
   O48        1.0     0.550998     0.455800     0.537724    Uiso  ? O
   Ir1        1.0     0.495467     0.511892     0.606333    Uiso  ? Ir
   Ir2        1.0     0.156739     0.173326     0.584720    Uiso  ? Ir
   Ir3        1.0     0.494591     0.183257     0.582402    Uiso  ? Ir
   Ir4        1.0     0.818227     0.505541     0.582337    Uiso  ? Ir
   Ir5        1.0     0.831844     0.847889     0.585002    Uiso  ? Ir
   Ir6        1.0     0.470302     0.842611     0.586998    Uiso  ? Ir
   Ir7        1.0     0.153657     0.530503     0.586942    Uiso  ? Ir
