data_1\(2)
_audit_creation_date              2025-04-25
_audit_creation_method            'Materials Studio'
_symmetry_space_group_name_H-M    'P1'
_symmetry_Int_Tables_number       1
_symmetry_cell_setting            triclinic
loop_
_symmetry_equiv_pos_as_xyz
  x,y,z
_cell_length_a                    11.5982
_cell_length_b                    11.5982
_cell_length_c                    21.0482
_cell_angle_alpha                 90.0000
_cell_angle_beta                  90.0000
_cell_angle_gamma                 120.0000
loop_
_atom_site_label
_atom_site_type_symbol
_atom_site_fract_x
_atom_site_fract_y
_atom_site_fract_z
_atom_site_U_iso_or_equiv
_atom_site_adp_type
_atom_site_occupancy
Ce1    Ce    0.00355   0.99614   0.45681   0.00000  Uiso   1.00
Ce2    Ce    0.22222   0.11111   0.30996   0.00000  Uiso   1.00
Ce3    Ce    0.32535   0.99764   0.46049   0.00000  Uiso   1.00
Ce4    Ce    0.55556   0.11111   0.30996   0.00000  Uiso   1.00
Ce5    Ce    0.66944   0.00531   0.46128   0.00000  Uiso   1.00
Ce6    Ce    0.88889   0.11111   0.30996   0.00000  Uiso   1.00
Ce7    Ce    0.99424   0.33045   0.46165   0.00000  Uiso   1.00
Ce8    Ce    0.22222   0.44444   0.30996   0.00000  Uiso   1.00
Ce9    Ce    0.34031   0.34358   0.46228   0.00000  Uiso   1.00
Ce10   Ce    0.55556   0.44444   0.30996   0.00000  Uiso   1.00
Ce11   Ce    0.67098   0.32944   0.45664   0.00000  Uiso   1.00
Ce12   Ce    0.88889   0.44444   0.30996   0.00000  Uiso   1.00
Ce13   Ce    0.00519   0.67621   0.45924   0.00000  Uiso   1.00
Ce14   Ce    0.22222   0.77778   0.30996   0.00000  Uiso   1.00
Ce15   Ce    0.33328   0.66703   0.45847   0.00000  Uiso   1.00
Ce16   Ce    0.55556   0.77778   0.30996   0.00000  Uiso   1.00
Ce17   Ce    0.65704   0.65973   0.46251   0.00000  Uiso   1.00
Ce18   Ce    0.88889   0.77778   0.30996   0.00000  Uiso   1.00
O19    O     0.01036   0.99416   0.58698   0.00000  Uiso   1.00
O20    O     0.11111   0.22222   0.27247   0.00000  Uiso   1.00
O21    O     0.22658   0.11867   0.42170   0.00000  Uiso   1.00
O22    O     0.10952   0.21810   0.50284   0.00000  Uiso   1.00
O23    O     0.00000   0.00000   0.34745   0.00000  Uiso   1.00
O24    O     0.33679   0.03234   0.58178   0.00000  Uiso   1.00
O25    O     0.44444   0.22222   0.27247   0.00000  Uiso   1.00
O26    O     0.55234   0.10748   0.42117   0.00000  Uiso   1.00
O27    O     0.44843   0.21994   0.49838   0.00000  Uiso   1.00
O28    O     0.33333   0.00000   0.34745   0.00000  Uiso   1.00
O29    O     0.63907   0.97476   0.58229   0.00000  Uiso   1.00
O30    O     0.77778   0.22222   0.27247   0.00000  Uiso   1.00
O31    O     0.89111   0.10888   0.42284   0.00000  Uiso   1.00
O32    O     0.77710   0.22213   0.49045   0.00000  Uiso   1.00
O33    O     0.66667   0.00000   0.34745   0.00000  Uiso   1.00
O34    O     0.02319   0.35952   0.58092   0.00000  Uiso   1.00
O35    O     0.11111   0.55556   0.27247   0.00000  Uiso   1.00
O36    O     0.21300   0.43127   0.42216   0.00000  Uiso   1.00
O37    O     0.10507   0.55962   0.50211   0.00000  Uiso   1.00
O38    O     0.00000   0.33333   0.34745   0.00000  Uiso   1.00
O39    O     0.31096   0.34571   0.59083   0.00000  Uiso   1.00
O40    O     0.44444   0.55556   0.27247   0.00000  Uiso   1.00
O41    O     0.55607   0.44417   0.41837   0.00000  Uiso   1.00
O42    O     0.44186   0.54615   0.51936   0.00000  Uiso   1.00
O43    O     0.33333   0.33333   0.34745   0.00000  Uiso   1.00
O44    O     0.66479   0.33801   0.59004   0.00000  Uiso   1.00
O45    O     0.77778   0.55556   0.27247   0.00000  Uiso   1.00
O46    O     0.89287   0.44679   0.42076   0.00000  Uiso   1.00
O47    O     0.78297   0.55197   0.49808   0.00000  Uiso   1.00
O48    O     0.66667   0.33333   0.34745   0.00000  Uiso   1.00
O49    O     0.96889   0.66204   0.58342   0.00000  Uiso   1.00
O50    O     0.11111   0.88889   0.27247   0.00000  Uiso   1.00
O51    O     0.22005   0.78147   0.42007   0.00000  Uiso   1.00
O52    O     0.11006   0.89029   0.48937   0.00000  Uiso   1.00
O53    O     0.00000   0.66667   0.34745   0.00000  Uiso   1.00
O54    O     0.30006   0.70033   0.59351   0.00000  Uiso   1.00
O55    O     0.44444   0.88889   0.27247   0.00000  Uiso   1.00
O56    O     0.56880   0.78642   0.42250   0.00000  Uiso   1.00
O57    O     0.44021   0.89483   0.50291   0.00000  Uiso   1.00
O58    O     0.33333   0.66667   0.34745   0.00000  Uiso   1.00
O59    O     0.65711   0.69276   0.58792   0.00000  Uiso   1.00
O60    O     0.77778   0.88889   0.27247   0.00000  Uiso   1.00
O61    O     0.88146   0.77372   0.42160   0.00000  Uiso   1.00
O62    O     0.78251   0.89105   0.50266   0.00000  Uiso   1.00
O63    O     0.66667   0.66667   0.34745   0.00000  Uiso   1.00
O64    O     0.34134   0.52208   0.61020   0.00000  Uiso   1.00
O65    O     0.61871   0.48333   0.60482   0.00000  Uiso   1.00
Ir66   Ir    0.49326   0.50796   0.59914   0.00000  Uiso   1.00
Ir67   Ir    0.15674   0.17333   0.58472   0.00000  Uiso   1.00
Ir68   Ir    0.49459   0.18326   0.58240   0.00000  Uiso   1.00
Ir69   Ir    0.81823   0.50554   0.58234   0.00000  Uiso   1.00
Ir70   Ir    0.83184   0.84789   0.58500   0.00000  Uiso   1.00
Ir71   Ir    0.47030   0.84261   0.58700   0.00000  Uiso   1.00
Ir72   Ir    0.15366   0.53050   0.58694   0.00000  Uiso   1.00
O73    O     0.53267   0.48676   0.67821   0.00000  Uiso   1.00
loop_
_geom_bond_atom_site_label_1
_geom_bond_atom_site_label_2
_geom_bond_distance
_geom_bond_site_symmetry_2
_ccdc_geom_bond_type
O19    Ir67    1.917   1_565 S
O19    Ir70    1.912   1_455 S
O22    Ir67    1.956   .     S
O24    Ir68    1.792   .     S
O27    Ir68    1.955   .     S
O29    Ir71    1.786   .     S
O34    Ir72    1.799   .     S
O37    Ir72    1.952   .     S
O39    Ir66    2.016   .     S
O39    Ir67    1.907   .     S
O44    Ir68    1.898   .     S
O44    Ir69    1.874   .     S
O47    Ir69    1.955   .     S
O49    Ir69    1.782   .     S
O54    Ir71    1.839   .     S
O54    Ir72    1.854   .     S
O57    Ir71    1.958   .     S
O59    Ir66    2.046   .     S
O59    Ir70    1.924   .     S
O62    Ir70    1.967   .     S
O64    Ir66    1.864   .     S
O65    Ir66    1.621   .     S
Ir66   O73     1.775   .     S
Ir67   O19     1.917   1_545 S
Ir70   O19     1.912   1_655 S
